[Format]      =  4.0
[Frequency]   =  0
[Precision]   =  9.9999999999999998e-013
[MinAngle]    =  30
[DoSmartMesh] =  1
[Depth]       =  1
[LengthUnits] =  meters
[ProblemType] =  axisymmetric
[Coordinates] =  cartesian
[ACSolver]    =  0
[PrevType]    =  0
[PrevSoln]    =  ""
[Comment]     =  "Add comments here."
[PointProps]   = 0
[BdryProps]   = 1
  <BeginBdry>
    <BdryName> = "A=0"
    <BdryType> = 0
    <A_0> = 0
    <A_1> = 0
    <A_2> = 0
    <Phi> = 0
    <c0> = 0
    <c0i> = 0
    <c1> = 0
    <c1i> = 0
    <Mu_ssd> = 0
    <Sigma_ssd> = 0
    <innerangle> = 0
    <outerangle> = 0
  <EndBdry>
[BlockProps]  = 3
  <BeginBlock>
    <BlockName> = "copper_0.200 m(m)"
    <Mu_x> = 0.999
    <Mu_y> = 0.999
    <H_c> = 0
    <H_cAngle> = 0
    <J_re> = 0
    <J_im> = 0
    <Sigma> = 60.078249999999997
    <d_lam> = 0
    <Phi_h> = 0
    <Phi_hx> = 0
    <Phi_hy> = 0
    <LamType> = 3
    <LamFill> = 1
    <NStrands> = 1
    <WireD> = 0.20000000000000001
    <BHPoints> = 0
  <EndBlock>
  <BeginBlock>
    <BlockName> = "NdFeB"
    <Mu_x> = 1.05
    <Mu_y> = 1.05
    <H_c> = 956000
    <H_cAngle> = 0
    <J_re> = 0
    <J_im> = 0
    <Sigma> = 0.66698000000000002
    <d_lam> = 0
    <Phi_h> = 0
    <Phi_hx> = 0
    <Phi_hy> = 0
    <LamType> = 0
    <LamFill> = 1
    <NStrands> = 0
    <WireD> = 0
    <BHPoints> = 0
  <EndBlock>
  <BeginBlock>
    <BlockName> = "air"
    <Mu_x> = 1
    <Mu_y> = 1
    <H_c> = 0
    <H_cAngle> = 0
    <J_re> = 0
    <J_im> = 0
    <Sigma> = 0
    <d_lam> = 0
    <Phi_h> = 0
    <Phi_hx> = 0
    <Phi_hy> = 0
    <LamType> = 0
    <LamFill> = 1
    <NStrands> = 0
    <WireD> = 0
    <BHPoints> = 0
  <EndBlock>
[CircuitProps]  = 1
  <BeginCircuit>
    <CircuitName> = "phase"
    <TotalAmps_re> = 0
    <TotalAmps_im> = 0
    <CircuitType> = 1
  <EndCircuit>
[NumPoints] = 38
0	-0.071999999999999995	0	0
0	0.071999999999999995	0	0
0.02	0.071999999999999995	0	0
0.02	-0.071999999999999995	0	0
0.0064999999999999997	-0.017500000000000002	0	0
0.0064999999999999997	-0.012500000000000001	0	0
0.01	-0.012500000000000001	0	0
0.01	-0.017500000000000002	0	0
0.0064999999999999997	-0.0074999999999999997	0	0
0.0064999999999999997	-0.0024999999999999996	0	0
0.01	-0.0024999999999999996	0	0
0.01	-0.0074999999999999997	0	0
0.0064999999999999997	0.0025000000000000001	0	0
0.0064999999999999997	0.0074999999999999997	0	0
0.01	0.0074999999999999997	0	0
0.01	0.0025000000000000001	0	0
0.0064999999999999997	0.012499999999999999	0	0
0.0064999999999999997	0.017499999999999998	0	0
0.01	0.017499999999999998	0	0
0.01	0.012499999999999999	0	0
-2.4457418839474889e-019	-0.043994199610288137	0	0
-2.4457418839474889e-019	-0.033994199610288135	0	0
0.0050000000000000001	-0.033994199610288135	0	0
0.0050000000000000001	-0.043994199610288137	0	0
-2.4457418839474889e-019	-0.023994199610288137	0	0
0.0050000000000000001	-0.023994199610288137	0	0
-2.4457418839474889e-019	-0.013994199610288144	0	0
0.0050000000000000001	-0.013994199610288144	0	0
-2.4457418839474889e-019	-0.0039941996102881424	0	0
0.0050000000000000001	-0.0039941996102881424	0	0
-2.4457418839474889e-019	0.0060058003897118586	0	0
0.0050000000000000001	0.0060058003897118586	0	0
-2.4457418839474889e-019	0.016005800389711864	0	0
0.0050000000000000001	0.016005800389711864	0	0
-2.4457418839474889e-019	0.026005800389711859	0	0
0.0050000000000000001	0.026005800389711859	0	0
-2.4457418839474889e-019	0.036005800389711871	0	0
0.0050000000000000001	0.036005800389711871	0	0
[NumSegments] = 46
0	20	-1	0	0	0
1	2	-1	1	0	0
2	3	-1	1	0	0
3	0	-1	1	0	0
4	5	-1	0	0	1
5	6	-1	0	0	1
6	7	-1	0	0	1
7	4	-1	0	0	1
8	9	-1	0	0	1
9	10	-1	0	0	1
10	11	-1	0	0	1
11	8	-1	0	0	1
12	13	-1	0	0	1
13	14	-1	0	0	1
14	15	-1	0	0	1
15	12	-1	0	0	1
16	17	-1	0	0	1
17	18	-1	0	0	1
18	19	-1	0	0	1
19	16	-1	0	0	1
20	21	-1	0	0	0
21	24	-1	0	0	0
21	22	-1	0	0	2
22	23	-1	0	0	2
23	20	-1	0	0	2
24	26	-1	0	0	0
24	25	-1	0	0	2
25	22	-1	0	0	2
26	28	-1	0	0	0
26	27	-1	0	0	2
27	25	-1	0	0	2
28	30	-1	0	0	0
28	29	-1	0	0	2
29	27	-1	0	0	2
30	32	-1	0	0	0
30	31	-1	0	0	2
31	29	-1	0	0	2
32	34	-1	0	0	0
32	33	-1	0	0	2
33	31	-1	0	0	2
34	36	-1	0	0	0
34	35	-1	0	0	2
35	33	-1	0	0	2
36	1	-1	0	0	0
36	37	-1	0	0	2
37	35	-1	0	0	2
[NumArcSegments] = 0
[NumHoles] = 0
[NumBlockLabels] = 13
0.0082500000000000004	-0.015000000000000001	1	-1	1	0	1	307	0
0.0082500000000000004	-0.0049999999999999992	1	-1	1	0	1	-307	0
0.0082500000000000004	0.0050000000000000001	1	-1	1	0	1	307	0
0.0082500000000000004	0.014999999999999999	1	-1	1	0	1	-307	0
0.0025000000000000001	-0.03899419961028814	2	-1	0	90	2	1	0
0.0025000000000000001	-0.028994199610288138	2	-1	0	-90	2	1	0
0.0025000000000000001	-0.018994199610288136	2	-1	0	90	2	1	0
0.0025000000000000001	-0.0089941996102881425	2	-1	0	-90	2	1	0
0.0025000000000000001	0.0010058003897118598	2	-1	0	90	2	1	0
0.0025000000000000001	0.011005800389711861	2	-1	0	-90	2	1	0
0.0025000000000000001	0.021005800389711858	2	-1	0	90	2	1	0
0.0025000000000000001	0.031005800389711867	2	-1	0	-90	2	1	0
0.0099994506835937511	-0.051556091308593732	3	-1	0	0	0	1	0
